#
#   ____ _ ____         ___                   ____                   ___       _             __                
#  / ___(_)  _ \   _   / _ \ _ __   ___ _ __ / ___|  ___  ___  ___  |_ _|_ __ | |_ ___ _ __ / _| __ _  ___ ___ 
# | |  _| | | | |_| |_| | | | '_ \ / _ \ '_ \\___ \ / _ \/ _ \/ __|  | || '_ \| __/ _ \ '__| |_ / _` |/ __/ _ \
# | |_| | | |_| |_   _| |_| | |_) |  __/ | | |___) |  __/  __/\__ \  | || | | | ||  __/ |  |  _| (_| | (_|  __/
#  \____|_|____/  |_|  \___/| .__/ \___|_| |_|____/ \___|\___||___/ |___|_| |_|\__\___|_|  |_|  \__,_|\___\___|
#                           |_|                                                                                
#
# GiD + OpenSees Interface - An Integrated FEA Platform
# Copyright (C) 2016-2020
#
# Lab of R/C and Masonry Structures
# School of Civil Engineering, AUTh
#
# Development Team
#
# T. Kartalis-Kaounis, Dipl. Eng. AUTh, MSc
# V.K. Papanikolaou, Dipl. Eng., MSc DIC, PhD, Asst. Prof. AUTh
#
# Project Contributors
#
# F. Derveni, Dipl. Eng. AUTh
# V.K. Protopapadakis, Dipl. Eng. AUTh, MSc
# T. Papadopoulos, Dipl. Eng. AUTh, MSc
# T. Zachariadis, Dipl. Eng. AUTh, MSc
#
# This program is free software: you can redistribute it and/or modify
# it under the terms of the GNU General Public License as published by
# the Free Software Foundation, either version 3 of the License, or
# (at your option) any later version.
#
# This program is distributed in the hope that it will be useful,
# but WITHOUT ANY WARRANTY; without even the implied warranty of
# MERCHANTABILITY or FITNESS FOR A PARTICULAR PURPOSE.  See the
# GNU General Public License for more details.
#
# You should have received a copy of the GNU General Public License
# along with this program.  If not, see <http://www.gnu.org/licenses/>.

logFile "SAFIR_frame.log"
# --------------------------------------------------------------------------------------------------------------
# U N I T S
# --------------------------------------------------------------------------------------------------------------

# Length : m
# Force  : kN
# Moment : kNm
# Stress : kPa
# Mass   : ton

# --------------------------------------------------------------------------------------------------------------
# M A T E R I A L S / S E C T I O N S ( E L E M E N T S )
# --------------------------------------------------------------------------------------------------------------

# Thermal_Displacement-Based_Beam-Column-Col (120)
# Thermal_Displacement-Based_Beam-Column-Beam-Mid (48)
# Thermal_Displacement-Based_Beam-Column-Beam-Joint (12)

# --------------------------------------------------------------------------------------------------------------
#
# M O D E L  D O M A I N  6DOF  (6)
#
# --------------------------------------------------------------------------------------------------------------

model BasicBuilder -ndm 3 -ndf 6

# --------------------------------------------------------------------------------------------------------------
# N O D E S
# --------------------------------------------------------------------------------------------------------------

# node $NodeTag $XCoord $Ycoord $Zcoord

node      1           18            0          9.6
node      2           18            0         9.28
node      3           18            0         8.96
node      4           18            0         8.64
node      5           18            0         8.32
node      6           18            0            8
node      7           18            0         7.68
node      8           18            0         7.36
node      9           18            0         7.04
node     10           18            0         6.72
node     11           18            0          6.4
node     12         17.4            0          6.4
node     13         16.8            0          6.4
node     14           18            0         6.08
node     15         16.2            0          6.4
node     16           18            0         5.76
node     17         15.6            0          6.4
node     18           18            0         5.44
node     19           15            0          6.4
node     20           18            0         5.12
# ... 158 like lines cut

# --------------------------------------------------------------------------------------------------------------
# R E S T R A I N T S
# --------------------------------------------------------------------------------------------------------------

# fix $NodeTag x-transl y-transl z-transl x-rot y-rot z-rot

fix      1   1   1   0   1   1   1
fix     28   1   1   0   1   1   1
fix     79   1   1   1   1   1   1
fix     93   1   1   1   1   1   1
fix     96   1   1   0   1   1   1
fix    137   1   1   1   1   1   1
fix    147   1   1   0   1   1   1
fix    178   1   1   1   1   1   1

fix    157   1   0 0 0 0 0
fix    168   1   0 0 0 0 0
# --------------------------------------------------------------------------------------------------------------
# D I S P L A C E M E N T - B A S E D   B E A M - C O L U M N   E L E M E N T S
# --------------------------------------------------------------------------------------------------------------

# Geometric Transformation
geomTransf Linear 1  -1.0 0.0 0; #Vertical with angle = 0
geomTransf Linear 2  0 0 1; #Non-vertical with angle = 0
geomTransf PDelta 3  -1.0 0.0 0; #Vertical with angle = 0
geomTransf PDelta 4  0 0 1; #Non-vertical with angle = 0
geomTransf Corotational 5  -1.0 0.0 0; #Vertical with angle = 0
geomTransf Corotational 6  0 0 1; #Non-vertical with angle = 0


# Sections Definition used by dispBeamColumn Elements
# (if they have not already been defined on this model domain)

### Section for element: Thermal_Displacement-Based_Beam-Column-Col
uniaxialMaterial DamagePlasticityConcreteECT 618 -30000 -0.0025 -200 -0.02 0.2 2900 2.72727e+06
uniaxialMaterial DPMsteelEC 611 500000 2e+08 0.05 0 1 0 1


section fiberSecThermal 667 -GJ 1e10  {


# patch rect $matTag $numSubdivY $numSubdivZ $yI $zI $yJ $zJ
patch rect 618     18     18  -0.160000  -0.160000   0.160000   0.160000

# Create the Cover fibers

# patch rect $matTag $numSubdivY $numSubdivZ $yI $zI $yJ $zJ
patch rect 618      3     24   0.160000  -0.200000   0.200000   0.200000
patch rect 618      3     24  -0.200000  -0.200000  -0.160000   0.200000
patch rect 618     18      3  -0.160000   0.160000   0.160000   0.200000
patch rect 618     18      3  -0.160000  -0.200000   0.160000  -0.160000

# Create the corner bars

# layer straight $matTag $numFiber $areaFiber $yStart $zStart $yEnd $zEnd
layer straight 611  2   0.00031420   0.160000   0.160000   0.160000  -0.160000
layer straight 611  2   0.00031420  -0.160000   0.160000  -0.160000  -0.160000

# Create the middle bars

# fiber $yLoc $zLoc $A $matTag
fiber   0.160000 0   0.00031420 611
fiber  -0.160000 0   0.00031420 611

# Create the middle Reinforcing Bars along local y axis

# fiber $yLoc $zLoc $A $matTag
fiber 0   0.160000     0.00031420 611
fiber 0  -0.160000     0.00031420 611
}
### Section for element: Thermal_Displacement-Based_Beam-Column-Beam-Mid


section fiberSecThermal 669 -GJ 1e10  {


# patch rect $matTag $numSubdivY $numSubdivZ $yI $zI $yJ $zJ
patch rect 618     13     15  -0.135000  -0.210000   0.135000   0.210000

# Create the Cover fibers

# patch rect $matTag $numSubdivY $numSubdivZ $yI $zI $yJ $zJ
patch rect 618      3     19   0.135000  -0.250000   0.175000   0.250000
patch rect 618      3     19  -0.175000  -0.250000  -0.135000   0.250000
patch rect 618     13      2  -0.135000   0.210000   0.135000   0.250000
patch rect 618     13      2  -0.135000  -0.250000   0.135000  -0.210000


# Create the Top bars (face on local z positive dir)

# layer straight $matTag $numFiber $areaFiber $yStart $zStart $yEnd $zEnd
layer straight 611   2    0.00031420  -0.135000   0.210000   0.135000   0.210000

# Create the Bottom bars (face on local z negative dir)

layer straight 611   3   0.00031420  -0.135000  -0.210000   0.135000  -0.210000
}
### Section for element: Thermal_Displacement-Based_Beam-Column-Beam-Joint


section fiberSecThermal 670 -GJ 1e10  {


# patch rect $matTag $numSubdivY $numSubdivZ $yI $zI $yJ $zJ
patch rect 618     13     15  -0.135000  -0.210000   0.135000   0.210000

# Create the Cover fibers

# patch rect $matTag $numSubdivY $numSubdivZ $yI $zI $yJ $zJ
patch rect 618      3     19   0.135000  -0.250000   0.175000   0.250000
patch rect 618      3     19  -0.175000  -0.250000  -0.135000   0.250000
patch rect 618     13      2  -0.135000   0.210000   0.135000   0.250000
patch rect 618     13      2  -0.135000  -0.250000   0.135000  -0.210000


# Create the Top bars (face on local z positive dir)

# layer straight $matTag $numFiber $areaFiber $yStart $zStart $yEnd $zEnd
layer straight 611   3    0.00031420  -0.135000   0.210000   0.135000   0.210000

# Create the Bottom bars (face on local z negative dir)

layer straight 611   2   0.00031420  -0.135000  -0.210000   0.135000  -0.210000
}

# Displacement-Based Beam Column Element Definition

# element dispBeamColumnThermal $eleTag $iNode $jNode $numIntgrPts $secTag $transfTag <-mass $massDens>

element dispBeamColumnThermal      1    178    177  3    667  5   -mass    1.256
element dispBeamColumnThermal      2    177    176  3    667  5   -mass    1.256
element dispBeamColumnThermal      3    176    175  3    667  5   -mass    1.256
element dispBeamColumnThermal      4    175    174  3    667  5   -mass    1.256
element dispBeamColumnThermal      5    174    173  3    667  5   -mass    1.256
element dispBeamColumnThermal      6    173    172  3    667  5   -mass    1.256
element dispBeamColumnThermal      7    172    171  3    667  5   -mass    1.256
element dispBeamColumnThermal      8    171    170  3    667  5   -mass    1.256
element dispBeamColumnThermal      9    170    169  3    667  5   -mass    1.256
element dispBeamColumnThermal     10    169    168  3    667  5   -mass    1.256
element dispBeamColumnThermal     11    168    167  3    667  5   -mass    1.256
element dispBeamColumnThermal     12    167    166  3    667  5   -mass    1.256
element dispBeamColumnThermal     13    166    165  3    667  5   -mass    1.256
element dispBeamColumnThermal     14    165    164  3    667  5   -mass    1.256
element dispBeamColumnThermal     15    164    163  3    667  5   -mass    1.256
element dispBeamColumnThermal     16    163    162  3    667  5   -mass    1.256
element dispBeamColumnThermal     17    162    160  3    667  5   -mass    1.256
element dispBeamColumnThermal     18    160    159  3    667  5   -mass    1.256
element dispBeamColumnThermal     19    159    158  3    667  5   -mass    1.256
element dispBeamColumnThermal     20    158    157  3    667  5   -mass    1.256
# ... 160 like lines cut

# --------------------------------------------------------------------------------------------------------------
#
# D O M A I N  C O M M O N S
#
# --------------------------------------------------------------------------------------------------------------

# --------------------------------------------------------------------------------------------------------------
# R E C O R D E R S
# --------------------------------------------------------------------------------------------------------------

recorder Node -file Node_displacements.out -time -nodeRange 1 178 -dof 1 2 3 disp
recorder Node -file Node_rotations.out -time -nodeRange 1 178 -dof 4 5 6 disp
recorder Node -file Node_forceReactions.out -time -nodeRange 1 178 -dof 1 2 3 reaction
recorder Node -file Node_momentReactions.out -time -nodeRange 1 178 -dof 4 5 6 reaction
recorder Element -file DispBeamColumn_localForce.out -time -ele 1 2 3 4 5 6 7 8 9 10 11 12 13 14 15 16 17 18 19 20 21 22 23 24 25 26 27 28 29 30 31 32 33 34 35 36 37 38 39 40 41 42 43 44 45 46 47 48 49 50 51 52 53 54 55 56 57 58 59 60 61 62 63 64 65 66 67 68 69 70 71 72 73 74 75 76 77 78 79 80 81 82 83 84 85 86 87 88 89 90 91 92 93 94 95 96 97 98 99 100 101 102 103 104 105 106 107 108 109 110 111 
recorder Element -file DispBeamColumn_basicDeformation.out -time -ele 1 2 3 4 5 6 7 8 9 10 11 12 13 14 15 16 17 18 19 20 21 22 23 24 25 26 27 28 29 30 31 32 33 34 35 36 37 38 39 40 41 42 43 44 45 46 47 48 49 50 51 52 53 54 55 56 57 58 59 60 61 62 63 64 65 66 67 68 69 70 71 72 73 74 75 76 77 78 79 80 81 82 83 84 85 86 87 88 89 90 91 92 93 94 95 96 97 98 99 100 101 102 103 104 105 106 107 108 109 11
recorder Element -file DispBeamColumn_plasticDeformation.out -time -ele 1 2 3 4 5 6 7 8 9 10 11 12 13 14 15 16 17 18 19 20 21 22 23 24 25 26 27 28 29 30 31 32 33 34 35 36 37 38 39 40 41 42 43 44 45 46 47 48 49 50 51 52 53 54 55 56 57 58 59 60 61 62 63 64 65 66 67 68 69 70 71 72 73 74 75 76 77 78 79 80 81 82 83 84 85 86 87 88 89 90 91 92 93 94 95 96 97 98 99 100 101 102 103 104 105 106 107 108 109 
puts ""
puts " __   __       __          __                   _       "
puts "/ _ .|  \\ _|_ /  \\ _  _ _ (_  _ _ _  | _ |_ _ _(_ _  _ _"
puts "\\__)||__/  |  \\__/|_)(-| )__)(-(-_)  || )|_(-| | (_|(_(-"
puts "                  |                                     "
puts "                                                  v2.8.0"
puts "Analysis summary"
puts ""
puts "Interval 1 : Static - [expr int(1+100)] steps"
puts "Interval 2 : Static - [expr int(1+360)] steps"
puts ""
puts "----------------"
puts ""
set time_start [clock seconds]
puts "Starting analysis at [clock format $time_start -format %H:%M:%S]\n"

# --------------------------------------------------------------------------------------------------------------
#
# I N T E R V A L   1
#
# --------------------------------------------------------------------------------------------------------------

puts "Running interval 1\n"
# Loads - Plain Pattern
pattern Plain 100 Linear {
    load      1        0        0     -880        0        0        0
    load     28        0        0    -1760        0        0        0
    load     96        0        0    -1760        0        0        0
    load    147        0        0     -880        0        0        0
    eleLoad -ele     31 -type -beamUniform        0      -42        0
    eleLoad -ele     32 -type -beamUniform        0      -42        0
    eleLoad -ele     33 -type -beamUniform        0      -42        0
    eleLoad -ele     34 -type -beamUniform        0      -42        0
    eleLoad -ele     35 -type -beamUniform        0      -42        0
    eleLoad -ele     36 -type -beamUniform        0      -42        0
    eleLoad -ele     37 -type -beamUniform        0      -42        0
    eleLoad -ele     38 -type -beamUniform        0      -42        0
    eleLoad -ele     39 -type -beamUniform        0      -42        0
    eleLoad -ele     40 -type -beamUniform        0      -42        0
    eleLoad -ele     41 -type -beamUniform        0      -42        0
    eleLoad -ele     42 -type -beamUniform        0      -42        0
    eleLoad -ele     43 -type -beamUniform        0      -42        0
    eleLoad -ele     44 -type -beamUniform        0      -42        0
    eleLoad -ele     45 -type -beamUniform        0      -42        0
    eleLoad -ele     46 -type -beamUniform        0      -42        0
    eleLoad -ele     47 -type -beamUniform        0      -42        0
    eleLoad -ele     48 -type -beamUniform        0      -42        0
    eleLoad -ele     49 -type -beamUniform        0      -42        0
    eleLoad -ele     50 -type -beamUniform        0      -42        0
# ... 40 like lines cut

}

# recording the initial status

record

# Analysis options

system BandGeneral
numberer RCM
constraints Transformation
integrator LoadControl 0.01
test RelativeEnergyIncr 1e-05 50 2
algorithm Newton
analysis Static
set Lincr 0.01
set Nsteps 100
set committedSteps 1
set LoadCounter 0


set strIni {}
variable testTypeStatic RelativeEnergyIncr
variable TolStatic 1e-05
variable maxNumIterStatic 50
variable algorithmTypeStatic Newton

for {set i 1} { $i <= $Nsteps } {incr i 1} {
    set t [format "%7.5f" [expr [getTime] + $Lincr]]
    puts -nonewline "(1) $algorithmTypeStatic$strIni LF $t "
    set AnalOk [analyze 1]
    if {$AnalOk !=0} {
        break
    } else {
        set LoadCounter [expr $LoadCounter+1.0]
        set committedSteps [expr $committedSteps+1]
    }
}

if {$AnalOk != 0} {; # if analysis fails, alternative algorithms and substepping is applied
    set firstFail 1
    set AnalOk 0
    set Nk 1
    set returnToInitStepFlag 0
    while {$LoadCounter < $Nsteps && $AnalOk == 0} {
        if {($Nk==2.0 && $AnalOk==0) || ($Nk==1 && $AnalOk==0)} {
            set Nk 1
            if {$returnToInitStepFlag} {
                puts "\nBack to initial step\n"
                set returnToInitStepFlag 0
            }
            if {$firstFail == 0} { # for the first time only, do not repeat previous failed step
                integrator LoadControl $Lincr; # reset to original increment
                set t [format "%7.5f" [expr [getTime] + $Lincr]]
                puts -nonewline "(1) $algorithmTypeStatic$strIni LF $t "
                set AnalOk [analyze 1]; # zero for convergence
            } else {
                set AnalOk 1
                set firstFail 0
            }
            if {$AnalOk == 0} {
                set LoadCounter [expr $LoadCounter+1.0/$Nk]
                set committedSteps [expr $committedSteps+1]
            }
        }; # end if Nk=1
        # substepping /2
        if {($AnalOk !=0 && $Nk==1) || ($AnalOk==0 && $Nk==4.0)} {
            set Nk 2.0; # reduce step size
            set continueFlag 1
            puts "\nInitial step is divided by 2\n"
            set LincrReduced [expr $Lincr/$Nk]
            integrator LoadControl $LincrReduced
            for {set ik 1} {$ik <=$Nk} {incr ik 1} {
                if {$continueFlag==0} {
                    break
                }
                set t [format "%7.5f" [expr [getTime] + $LincrReduced]]
                puts -nonewline "(1) $algorithmTypeStatic$strIni LF $t "
                set AnalOk [analyze 1]; # zero for convergence
                if {$AnalOk == 0} {
                    set LoadCounter [expr $LoadCounter+1.0/$Nk]
                    set committedSteps [expr $committedSteps+1]
                } else {
                    set continueFlag 0
                }
            }
            if {$AnalOk == 0} {
                set returnToInitStepFlag 1
            }
        }; # end if Nk=2.0
        # substepping /4
        if {($AnalOk !=0 && $Nk==2.0) || ($AnalOk==0 && $Nk==8.0)} {
            set Nk 4.0; # reduce step size
            set continueFlag 1
            puts "\nInitial step is divided by 4\n"
            set LincrReduced [expr $Lincr/$Nk]
            integrator LoadControl $LincrReduced
            for {set ik 1} {$ik <=$Nk} {incr ik 1} {
                if {$continueFlag==0} {
                    break
                }
                set t [format "%7.5f" [expr [getTime] + $LincrReduced]]
                puts -nonewline "(1) $algorithmTypeStatic$strIni LF $t "
                set AnalOk [analyze 1]; # zero for convergence
                if {$AnalOk == 0} {
                    set LoadCounter [expr $LoadCounter+1.0/$Nk]
                    set committedSteps [expr $committedSteps+1]
                } else {
                    set continueFlag 0
                }
            }
            if {$AnalOk == 0} {
                set returnToInitStepFlag 1
            }
        }; # end if Nk=4
        # substepping /8
        if {$AnalOk !=0 && $Nk==4.0 || ($Nk == 16.0 && $AnalOk == 0)} {
            set Nk 8.0; # reduce step size
            set continueFlag 1
            puts "\nInitial step is divided by 8\n"
            set LincrReduced [expr $Lincr/$Nk]
            integrator LoadControl $LincrReduced
            for {set ik 1} {$ik <=$Nk} {incr ik 1} {
                if {$continueFlag==0} {
                    break
                }
                set t [format "%7.5f" [expr [getTime] + $LincrReduced]]
                puts -nonewline "(1) $algorithmTypeStatic$strIni LF $t "
                set AnalOk [analyze 1]; # zero for convergence
                if {$AnalOk == 0} {
                    set LoadCounter [expr $LoadCounter+1.0/$Nk]
                    set committedSteps [expr $committedSteps+1]
                } else {
                    set continueFlag 0
                }
            }
            if {$AnalOk == 0} {
                set returnToInitStepFlag 1
            }
        }; # end if Nk=8
        # substepping /16
        if {($Nk == 8 && $AnalOk!=0)} {
            set Nk 16.0; # reduce step size
            set continueFlag 1
            puts "\nInitial step is divided by 16\n"
            set LincrReduced [expr $Lincr/$Nk]
            integrator LoadControl $LincrReduced
            for {set ik 1} {$ik <=$Nk} {incr ik 1} {
                if {$continueFlag==0} {
                    break
                }
                set t [format "%7.5f" [expr [getTime] + $LincrReduced]]
                puts -nonewline "(1) $algorithmTypeStatic$strIni LF $t "
                set AnalOk [analyze 1]; # zero for convergence
                if {$AnalOk == 0} {
                    set LoadCounter [expr $LoadCounter+1.0/$Nk]
                    set committedSteps [expr $committedSteps+1]
                } else {
                    set continueFlag 0
                }
            }
            if {$AnalOk == 0} {
                set returnToInitStepFlag 1
            }
        }; # end if Nk=16
    }; # end while loop
}; # end if AnalOk

if {$AnalOk == 0} {
    puts "\nAnalysis completed SUCCESSFULLY"
    puts "Committed steps : $committedSteps\n"
} else {
    puts "\nAnalysis FAILED"
    puts "Committed steps : $committedSteps\n"
}

# all previously defined patterns are constant for so on.

loadConst -time 0.0

# --------------------------------------------------------------------------------------------------------------
#
# I N T E R V A L   2
#
# --------------------------------------------------------------------------------------------------------------

puts "Running interval 2\n"
# Loads - Plain Pattern
pattern Plain 200 Linear {
    eleLoad -ele      1 -type -beamThermal -z   -source "ColumnRC1.dat"  -genInterpolation     -0.2      0.2     -0.2      0.2       24       24
    eleLoad -ele      2 -type -beamThermal -z   -source "ColumnRC1.dat"  -genInterpolation     -0.2      0.2     -0.2      0.2       24       24
    eleLoad -ele      3 -type -beamThermal -z   -source "ColumnRC1.dat"  -genInterpolation     -0.2      0.2     -0.2      0.2       24       24
    eleLoad -ele      4 -type -beamThermal -z   -source "ColumnRC1.dat"  -genInterpolation     -0.2      0.2     -0.2      0.2       24       24
    eleLoad -ele      5 -type -beamThermal -z   -source "ColumnRC1.dat"  -genInterpolation     -0.2      0.2     -0.2      0.2       24       24
    eleLoad -ele      6 -type -beamThermal -z   -source "ColumnRC1.dat"  -genInterpolation     -0.2      0.2     -0.2      0.2       24       24
    eleLoad -ele      7 -type -beamThermal -z   -source "ColumnRC1.dat"  -genInterpolation     -0.2      0.2     -0.2      0.2       24       24
    eleLoad -ele      8 -type -beamThermal -z   -source "ColumnRC1.dat"  -genInterpolation     -0.2      0.2     -0.2      0.2       24       24
    eleLoad -ele      9 -type -beamThermal -z   -source "ColumnRC1.dat"  -genInterpolation     -0.2      0.2     -0.2      0.2       24       24
    eleLoad -ele     10 -type -beamThermal -z   -source "ColumnRC1.dat"  -genInterpolation     -0.2      0.2     -0.2      0.2       24       24
    eleLoad -ele     11 -type -beamThermal -z   -source "ColumnRC1.dat"  -genInterpolation     -0.2      0.2     -0.2      0.2       24       24
    eleLoad -ele     12 -type -beamThermal -z   -source "ColumnRC1.dat"  -genInterpolation     -0.2      0.2     -0.2      0.2       24       24
    eleLoad -ele     13 -type -beamThermal -z   -source "ColumnRC1.dat"  -genInterpolation     -0.2      0.2     -0.2      0.2       24       24
    eleLoad -ele     14 -type -beamThermal -z   -source "ColumnRC1.dat"  -genInterpolation     -0.2      0.2     -0.2      0.2       24       24
    eleLoad -ele     15 -type -beamThermal -z   -source "ColumnRC1.dat"  -genInterpolation     -0.2      0.2     -0.2      0.2       24       24
    eleLoad -ele     16 -type -beamThermal -z   -source "ColumnRC1.dat"  -genInterpolation     -0.2      0.2     -0.2      0.2       24       24
    eleLoad -ele     17 -type -beamThermal -z   -source "ColumnRC1.dat"  -genInterpolation     -0.2      0.2     -0.2      0.2       24       24
    eleLoad -ele     18 -type -beamThermal -z   -source "ColumnRC1.dat"  -genInterpolation     -0.2      0.2     -0.2      0.2       24       24
    eleLoad -ele     19 -type -beamThermal -z   -source "ColumnRC1.dat"  -genInterpolation     -0.2      0.2     -0.2      0.2       24       24
    eleLoad -ele     20 -type -beamThermal -z   -source "ColumnRC1.dat"  -genInterpolation     -0.2      0.2     -0.2      0.2       24       24
    eleLoad -ele     31 -type -beamThermal -z   -source "BeamRC1.dat"  -genInterpolation400   -0.175    0.175    -0.25     0.25     
    eleLoad -ele     32 -type -beamThermal -z   -source "BeamRC1.dat"  -genInterpolation400   -0.175    0.175    -0.25     0.25     
    eleLoad -ele     33 -type -beamThermal -z   -source "BeamRC1.dat"  -genInterpolation400   -0.175    0.175    -0.25     0.25     
    eleLoad -ele     34 -type -beamThermal -z   -source "BeamRC1.dat"  -genInterpolation400   -0.175    0.175    -0.25     0.25     
    eleLoad -ele     35 -type -beamThermal -z   -source "BeamRC1.dat"  -genInterpolation400   -0.175    0.175    -0.25     0.25     
    eleLoad -ele     36 -type -beamThermal -z   -source "BeamRC1.dat"  -genInterpolation400   -0.175    0.175    -0.25     0.25     
    eleLoad -ele     37 -type -beamThermal -z   -source "BeamRC1.dat"  -genInterpolation400   -0.175    0.175    -0.25     0.25     
    eleLoad -ele     38 -type -beamThermal -z   -source "BeamRC1.dat"  -genInterpolation400   -0.175    0.175    -0.25     0.25     
    eleLoad -ele     39 -type -beamThermal -z   -source "BeamRC1.dat"  -genInterpolation400   -0.175    0.175    -0.25     0.25     
    eleLoad -ele     40 -type -beamThermal -z   -source "BeamRC1.dat"  -genInterpolation400   -0.175    0.175    -0.25     0.25     
    eleLoad -ele     41 -type -beamThermal -z   -source "BeamRC1.dat"  -genInterpolation400   -0.175    0.175    -0.25     0.25     
    eleLoad -ele     42 -type -beamThermal -z   -source "BeamRC1.dat"  -genInterpolation400   -0.175    0.175    -0.25     0.25     
    eleLoad -ele     43 -type -beamThermal -z   -source "BeamRC1.dat"  -genInterpolation400   -0.175    0.175    -0.25     0.25     
    eleLoad -ele     44 -type -beamThermal -z   -source "BeamRC1.dat"  -genInterpolation400   -0.175    0.175    -0.25     0.25     
    eleLoad -ele     45 -type -beamThermal -z   -source "BeamRC1.dat"  -genInterpolation400   -0.175    0.175    -0.25     0.25     
    eleLoad -ele     46 -type -beamThermal -z   -source "BeamRC1.dat"  -genInterpolation400   -0.175    0.175    -0.25     0.25     
    eleLoad -ele     47 -type -beamThermal -z   -source "BeamRC1.dat"  -genInterpolation400   -0.175    0.175    -0.25     0.25     
    eleLoad -ele     48 -type -beamThermal -z   -source "BeamRC1.dat"  -genInterpolation400   -0.175    0.175    -0.25     0.25     
    eleLoad -ele     49 -type -beamThermal -z   -source "BeamRC1.dat"  -genInterpolation400   -0.175    0.175    -0.25     0.25     
    eleLoad -ele     50 -type -beamThermal -z   -source "BeamRC1.dat"  -genInterpolation400   -0.175    0.175    -0.25     0.25     
# ... 10 like lines cut
    eleLoad -ele     61 -type -beamThermal -z   -source "ColumnRC1.dat"  -genInterpolation     -0.2      0.2     -0.2      0.2       24       24
    eleLoad -ele     62 -type -beamThermal -z   -source "ColumnRC1.dat"  -genInterpolation     -0.2      0.2     -0.2      0.2       24       24
    eleLoad -ele     63 -type -beamThermal -z   -source "ColumnRC1.dat"  -genInterpolation     -0.2      0.2     -0.2      0.2       24       24
    eleLoad -ele     64 -type -beamThermal -z   -source "ColumnRC1.dat"  -genInterpolation     -0.2      0.2     -0.2      0.2       24       24
    eleLoad -ele     65 -type -beamThermal -z   -source "ColumnRC1.dat"  -genInterpolation     -0.2      0.2     -0.2      0.2       24       24
    eleLoad -ele     66 -type -beamThermal -z   -source "ColumnRC1.dat"  -genInterpolation     -0.2      0.2     -0.2      0.2       24       24
    eleLoad -ele     67 -type -beamThermal -z   -source "ColumnRC1.dat"  -genInterpolation     -0.2      0.2     -0.2      0.2       24       24
    eleLoad -ele     68 -type -beamThermal -z   -source "ColumnRC1.dat"  -genInterpolation     -0.2      0.2     -0.2      0.2       24       24
    eleLoad -ele     69 -type -beamThermal -z   -source "ColumnRC1.dat"  -genInterpolation     -0.2      0.2     -0.2      0.2       24       24
    eleLoad -ele     70 -type -beamThermal -z   -source "ColumnRC1.dat"  -genInterpolation     -0.2      0.2     -0.2      0.2       24       24
    eleLoad -ele     91 -type -beamThermal -z   -source "ColumnRC1.dat"  -genInterpolation     -0.2      0.2     -0.2      0.2       24       24
    eleLoad -ele     92 -type -beamThermal -z   -source "ColumnRC1.dat"  -genInterpolation     -0.2      0.2     -0.2      0.2       24       24
    eleLoad -ele     93 -type -beamThermal -z   -source "ColumnRC1.dat"  -genInterpolation     -0.2      0.2     -0.2      0.2       24       24
    eleLoad -ele     94 -type -beamThermal -z   -source "ColumnRC1.dat"  -genInterpolation     -0.2      0.2     -0.2      0.2       24       24
    eleLoad -ele     95 -type -beamThermal -z   -source "ColumnRC1.dat"  -genInterpolation     -0.2      0.2     -0.2      0.2       24       24
    eleLoad -ele     96 -type -beamThermal -z   -source "ColumnRC1.dat"  -genInterpolation     -0.2      0.2     -0.2      0.2       24       24
    eleLoad -ele     97 -type -beamThermal -z   -source "ColumnRC1.dat"  -genInterpolation     -0.2      0.2     -0.2      0.2       24       24
    eleLoad -ele     98 -type -beamThermal -z   -source "ColumnRC1.dat"  -genInterpolation     -0.2      0.2     -0.2      0.2       24       24
    eleLoad -ele     99 -type -beamThermal -z   -source "ColumnRC1.dat"  -genInterpolation     -0.2      0.2     -0.2      0.2       24       24
    eleLoad -ele    100 -type -beamThermal -z   -source "ColumnRC1.dat"  -genInterpolation     -0.2      0.2     -0.2      0.2       24       24
# ... 30 like lines cut
    eleLoad -ele    141 -type -beamThermal -z   -source "BeamRC1.dat"  -genInterpolation400   -0.175    0.175    -0.25     0.25      
    eleLoad -ele    142 -type -beamThermal -z   -source "BeamRC1.dat"  -genInterpolation400   -0.175    0.175    -0.25     0.25      
    eleLoad -ele    143 -type -beamThermal -z   -source "BeamRC1.dat"  -genInterpolation400   -0.175    0.175    -0.25     0.25      
    eleLoad -ele    144 -type -beamThermal -z   -source "BeamRC1.dat"  -genInterpolation400   -0.175    0.175    -0.25     0.25      
    eleLoad -ele    145 -type -beamThermal -z   -source "BeamRC1.dat"  -genInterpolation400   -0.175    0.175    -0.25     0.25      
    eleLoad -ele    146 -type -beamThermal -z   -source "BeamRC1.dat"  -genInterpolation400   -0.175    0.175    -0.25     0.25      
    eleLoad -ele    147 -type -beamThermal -z   -source "BeamRC1.dat"  -genInterpolation400   -0.175    0.175    -0.25     0.25      
    eleLoad -ele    148 -type -beamThermal -z   -source "BeamRC1.dat"  -genInterpolation400   -0.175    0.175    -0.25     0.25      
    eleLoad -ele    149 -type -beamThermal -z   -source "BeamRC1.dat"  -genInterpolation400   -0.175    0.175    -0.25     0.25      
    eleLoad -ele    150 -type -beamThermal -z   -source "BeamRC1.dat"  -genInterpolation400   -0.175    0.175    -0.25     0.25      
    eleLoad -ele    151 -type -beamThermal -z   -source "BeamRC1.dat"  -genInterpolation400   -0.175    0.175    -0.25     0.25      
    eleLoad -ele    152 -type -beamThermal -z   -source "BeamRC1.dat"  -genInterpolation400   -0.175    0.175    -0.25     0.25      
    eleLoad -ele    153 -type -beamThermal -z   -source "BeamRC1.dat"  -genInterpolation400   -0.175    0.175    -0.25     0.25      
    eleLoad -ele    154 -type -beamThermal -z   -source "BeamRC1.dat"  -genInterpolation400   -0.175    0.175    -0.25     0.25      
    eleLoad -ele    155 -type -beamThermal -z   -source "BeamRC1.dat"  -genInterpolation400   -0.175    0.175    -0.25     0.25      
    eleLoad -ele    156 -type -beamThermal -z   -source "BeamRC1.dat"  -genInterpolation400   -0.175    0.175    -0.25     0.25      
    eleLoad -ele    157 -type -beamThermal -z   -source "BeamRC1.dat"  -genInterpolation400   -0.175    0.175    -0.25     0.25      
    eleLoad -ele    158 -type -beamThermal -z   -source "BeamRC1.dat"  -genInterpolation400   -0.175    0.175    -0.25     0.25      
    eleLoad -ele    159 -type -beamThermal -z   -source "BeamRC1.dat"  -genInterpolation400   -0.175    0.175    -0.25     0.25      
    eleLoad -ele    160 -type -beamThermal -z   -source "BeamRC1.dat"  -genInterpolation400   -0.175    0.175    -0.25     0.25      
# ... 10 like lines cut
    eleLoad -ele    171 -type -beamThermal -z   -source "ColumnRC1.dat"  -genInterpolation     -0.2      0.2     -0.2      0.2       24       24
    eleLoad -ele    172 -type -beamThermal -z   -source "ColumnRC1.dat"  -genInterpolation     -0.2      0.2     -0.2      0.2       24       24
    eleLoad -ele    173 -type -beamThermal -z   -source "ColumnRC1.dat"  -genInterpolation     -0.2      0.2     -0.2      0.2       24       24
    eleLoad -ele    174 -type -beamThermal -z   -source "ColumnRC1.dat"  -genInterpolation     -0.2      0.2     -0.2      0.2       24       24
    eleLoad -ele    175 -type -beamThermal -z   -source "ColumnRC1.dat"  -genInterpolation     -0.2      0.2     -0.2      0.2       24       24
    eleLoad -ele    176 -type -beamThermal -z   -source "ColumnRC1.dat"  -genInterpolation     -0.2      0.2     -0.2      0.2       24       24
    eleLoad -ele    177 -type -beamThermal -z   -source "ColumnRC1.dat"  -genInterpolation     -0.2      0.2     -0.2      0.2       24       24
    eleLoad -ele    178 -type -beamThermal -z   -source "ColumnRC1.dat"  -genInterpolation     -0.2      0.2     -0.2      0.2       24       24
    eleLoad -ele    179 -type -beamThermal -z   -source "ColumnRC1.dat"  -genInterpolation     -0.2      0.2     -0.2      0.2       24       24
    eleLoad -ele    180 -type -beamThermal -z   -source "ColumnRC1.dat"  -genInterpolation     -0.2      0.2     -0.2      0.2       24       24

}

# recording the initial status

record

# Analysis options

system UmfPack
numberer RCM
constraints Transformation
integrator LoadControl 30
test RelativeEnergyIncr 0.0001 50 2
algorithm Newton
analysis Static
set Lincr 30
set Nsteps 420
set committedSteps 1
set LoadCounter 0


set strIni {}
variable testTypeStatic RelativeEnergyIncr
variable TolStatic 0.0001
variable maxNumIterStatic 50
variable algorithmTypeStatic Newton

for {set i 1} { $i <= $Nsteps } {incr i 1} {
    set t [format "%7.5f" [expr [getTime] + $Lincr]]
    puts -nonewline "(2) $algorithmTypeStatic$strIni LF $t "
    set AnalOk [analyze 1]
    if {$AnalOk !=0} {
        break
    } else {
        set LoadCounter [expr $LoadCounter+1.0]
        set committedSteps [expr $committedSteps+1]
    }
}

if {$AnalOk != 0} {; # if analysis fails, alternative algorithms and substepping is applied
    set firstFail 1
    set AnalOk 0
    set Nk 1
    set returnToInitStepFlag 0
    while {$LoadCounter < $Nsteps && $AnalOk == 0} {
        if {($Nk==2.0 && $AnalOk==0) || ($Nk==1 && $AnalOk==0)} {
            set Nk 1
            if {$returnToInitStepFlag} {
                puts "\nBack to initial step\n"
                set returnToInitStepFlag 0
            }
            if {$firstFail == 0} { # for the first time only, do not repeat previous failed step
                integrator LoadControl $Lincr; # reset to original increment
                set t [format "%7.5f" [expr [getTime] + $Lincr]]
                puts -nonewline "(2) $algorithmTypeStatic$strIni LF $t "
                set AnalOk [analyze 1]; # zero for convergence
            } else {
                set AnalOk 1
                set firstFail 0
            }
            if {$AnalOk == 0} {
                set LoadCounter [expr $LoadCounter+1.0/$Nk]
                set committedSteps [expr $committedSteps+1]
            }
        }; # end if Nk=1
        # substepping /2
        if {($AnalOk !=0 && $Nk==1) || ($AnalOk==0 && $Nk==4.0)} {
            set Nk 2.0; # reduce step size
            set continueFlag 1
            puts "\nInitial step is divided by 2\n"
            set LincrReduced [expr $Lincr/$Nk]
            integrator LoadControl $LincrReduced
            for {set ik 1} {$ik <=$Nk} {incr ik 1} {
                if {$continueFlag==0} {
                    break
                }
                set t [format "%7.5f" [expr [getTime] + $LincrReduced]]
                puts -nonewline "(2) $algorithmTypeStatic$strIni LF $t "
                set AnalOk [analyze 1]; # zero for convergence
                if {$AnalOk == 0} {
                    set LoadCounter [expr $LoadCounter+1.0/$Nk]
                    set committedSteps [expr $committedSteps+1]
                } else {
                    set continueFlag 0
                }
            }
            if {$AnalOk == 0} {
                set returnToInitStepFlag 1
            }
        }; # end if Nk=2.0
        # substepping /4
        if {($AnalOk !=0 && $Nk==2.0) || ($AnalOk==0 && $Nk==8.0)} {
            set Nk 4.0; # reduce step size
            set continueFlag 1
            puts "\nInitial step is divided by 4\n"
            set LincrReduced [expr $Lincr/$Nk]
            integrator LoadControl $LincrReduced
            for {set ik 1} {$ik <=$Nk} {incr ik 1} {
                if {$continueFlag==0} {
                    break
                }
                set t [format "%7.5f" [expr [getTime] + $LincrReduced]]
                puts -nonewline "(2) $algorithmTypeStatic$strIni LF $t "
                set AnalOk [analyze 1]; # zero for convergence
                if {$AnalOk == 0} {
                    set LoadCounter [expr $LoadCounter+1.0/$Nk]
                    set committedSteps [expr $committedSteps+1]
                } else {
                    set continueFlag 0
                }
            }
            if {$AnalOk == 0} {
                set returnToInitStepFlag 1
            }
        }; # end if Nk=4
        # substepping /8
        if {$AnalOk !=0 && $Nk==4.0 || ($Nk == 16.0 && $AnalOk == 0)} {
            set Nk 8.0; # reduce step size
            set continueFlag 1
            puts "\nInitial step is divided by 8\n"
            set LincrReduced [expr $Lincr/$Nk]
            integrator LoadControl $LincrReduced
            for {set ik 1} {$ik <=$Nk} {incr ik 1} {
                if {$continueFlag==0} {
                    break
                }
                set t [format "%7.5f" [expr [getTime] + $LincrReduced]]
                puts -nonewline "(2) $algorithmTypeStatic$strIni LF $t "
                set AnalOk [analyze 1]; # zero for convergence
                if {$AnalOk == 0} {
                    set LoadCounter [expr $LoadCounter+1.0/$Nk]
                    set committedSteps [expr $committedSteps+1]
                } else {
                    set continueFlag 0
                }
            }
            if {$AnalOk == 0} {
                set returnToInitStepFlag 1
            }
        }; # end if Nk=8
        # substepping /16
        if {($Nk == 8 && $AnalOk!=0)} {
            set Nk 16.0; # reduce step size
            set continueFlag 1
            puts "\nInitial step is divided by 16\n"
            set LincrReduced [expr $Lincr/$Nk]
            integrator LoadControl $LincrReduced
            for {set ik 1} {$ik <=$Nk} {incr ik 1} {
                if {$continueFlag==0} {
                    break
                }
                set t [format "%7.5f" [expr [getTime] + $LincrReduced]]
                puts -nonewline "(2) $algorithmTypeStatic$strIni LF $t "
                set AnalOk [analyze 1]; # zero for convergence
                if {$AnalOk == 0} {
                    set LoadCounter [expr $LoadCounter+1.0/$Nk]
                    set committedSteps [expr $committedSteps+1]
                } else {
                    set continueFlag 0
                }
            }
            if {$AnalOk == 0} {
                set returnToInitStepFlag 1
            }
        }; # end if Nk=16
    }; # end while loop
}; # end if AnalOk

if {$AnalOk == 0} {
    puts "\nAnalysis completed SUCCESSFULLY"
    puts "Committed steps : $committedSteps\n"
} else {
    puts "\nAnalysis FAILED"
    puts "Committed steps : $committedSteps\n"
}

# all previously defined patterns are constant for so on.

loadConst -time 0.0

# --------------------------------------------------------------------------------------------------------------

set hour 0.0
set minute 0.0
set second 0.0
set time_end [clock seconds]
set analysisTime [expr $time_end-$time_start]

puts "Analysis finished at [clock format $time_end -format %H:%M:%S]\n"

if {$analysisTime<60} {
    if {$analysisTime==0} {
        puts "Analysis time : less than one second"
    } elseif {$analysisTime==1} {
        puts "Analysis time : 1 second"
    } else {
        puts "Analysis time : $analysisTime seconds"
    }

}  elseif {$analysisTime<3600} {
    set minutes [expr $analysisTime/60]
    set seconds [expr $analysisTime%60]

    if {$minutes==1} {
        puts -nonewline "Analysis time : 1 minute"
    } else {
        puts -nonewline "Analysis time : $minutes minutes"
    }

    if {$seconds==0} {
        puts ""
    } elseif {$seconds==1} {
        puts " and 1 second"
    } else {
        puts " and $seconds seconds"
    }

} else  {
    set hours [expr $analysisTime/3600]
    set minutes [expr ($analysisTime%3600)/60]
    set seconds [expr ($analysisTime%3600)%60]

    if {$hours==1} {
        puts -nonewline "Analysis time : 1 hour"
    } else {
        puts -nonewline "Analysis time : $hours hours"
    }

    if {$minutes==0} {
    } elseif {$minute==1} {
        puts -nonewline ", 1 minute"
    } else {
        puts -nonewline ", $minutes minutes"
    }

    if {$seconds==0} {
        puts ""
    } elseif {$second==1} {
        puts " and 1 second"
    } else {
        puts " and $seconds seconds"
    }
}

# --------------------------------------------------------------------------------------------------------------
#
# M E T A D A T A
#
# --------------------------------------------------------------------------------------------------------------

# Number of nodes
# 178

# Elements 1D
# 180

# Elements 2D
# 0

# Elements 3D
# 0

# DispBeamColumn
# 180
# 1 2 3 4 5 6 7 8 9 10 11 12 13 14 15 16 17 18 19 20 21 22 23 24 25 26 27 28 29 30 31 32 33 34 35 36 37 38 39 40 41 42 43 44 45 46 47 48 49 50 51 52 53 54 55 56 57 58 59 60 61 62 63 64 65 66 67 68 69 70 71 72 73 74 75 76 77 78 79 80 81 82 83 84 85 86 87 88 89 90 91 92 93 94 95 96 97 98 99 100 101 102 103 104 105 106 107 108 109 110 111 112 113 114 115 116 117 118 119 120 121 122 123 124 125 126 12

# -------------------------------------------------------------------------------------------------------------------------------------------------------------------------
#
# F R A M E   L O C A L   A X E S   O R I E N T A T I O N
#
# -------------------------------------------------------------------------------------------------------------------------------------------------------------------------
#
#      ID                           Type                       Local-x                       Local-y                       Local-z          Literal      Material / Section
#
#       1                 dispBeamColumn     {+0.0000 +0.0000 +1.0000}     {+0.0000 +1.0000 -0.0000}     {-1.0000 +0.0000 +0.0000}     { +Z +Y -X };   # Fiber-Col
#       2                 dispBeamColumn     {+0.0000 +0.0000 +1.0000}     {+0.0000 +1.0000 -0.0000}     {-1.0000 +0.0000 +0.0000}     { +Z +Y -X };   # Fiber-Col
#       3                 dispBeamColumn     {+0.0000 +0.0000 +1.0000}     {+0.0000 +1.0000 -0.0000}     {-1.0000 +0.0000 +0.0000}     { +Z +Y -X };   # Fiber-Col
#       4                 dispBeamColumn     {+0.0000 +0.0000 +1.0000}     {+0.0000 +1.0000 -0.0000}     {-1.0000 +0.0000 +0.0000}     { +Z +Y -X };   # Fiber-Col
#       5                 dispBeamColumn     {+0.0000 +0.0000 +1.0000}     {+0.0000 +1.0000 -0.0000}     {-1.0000 +0.0000 +0.0000}     { +Z +Y -X };   # Fiber-Col
#       6                 dispBeamColumn     {+0.0000 +0.0000 +1.0000}     {+0.0000 +1.0000 -0.0000}     {-1.0000 +0.0000 +0.0000}     { +Z +Y -X };   # Fiber-Col
#       7                 dispBeamColumn     {+0.0000 +0.0000 +1.0000}     {+0.0000 +1.0000 -0.0000}     {-1.0000 +0.0000 +0.0000}     { +Z +Y -X };   # Fiber-Col
#       8                 dispBeamColumn     {+0.0000 +0.0000 +1.0000}     {+0.0000 +1.0000 -0.0000}     {-1.0000 +0.0000 +0.0000}     { +Z +Y -X };   # Fiber-Col
#       9                 dispBeamColumn     {+0.0000 +0.0000 +1.0000}     {+0.0000 +1.0000 -0.0000}     {-1.0000 +0.0000 +0.0000}     { +Z +Y -X };   # Fiber-Col
#      10                 dispBeamColumn     {+0.0000 +0.0000 +1.0000}     {+0.0000 +1.0000 -0.0000}     {-1.0000 +0.0000 +0.0000}     { +Z +Y -X };   # Fiber-Col
#      11                 dispBeamColumn     {+0.0000 +0.0000 +1.0000}     {+0.0000 +1.0000 -0.0000}     {-1.0000 +0.0000 +0.0000}     { +Z +Y -X };   # Fiber-Col
#      12                 dispBeamColumn     {+0.0000 +0.0000 +1.0000}     {+0.0000 +1.0000 -0.0000}     {-1.0000 +0.0000 +0.0000}     { +Z +Y -X };   # Fiber-Col
#      13                 dispBeamColumn     {+0.0000 +0.0000 +1.0000}     {+0.0000 +1.0000 -0.0000}     {-1.0000 +0.0000 +0.0000}     { +Z +Y -X };   # Fiber-Col
#      14                 dispBeamColumn     {+0.0000 +0.0000 +1.0000}     {+0.0000 +1.0000 -0.0000}     {-1.0000 +0.0000 +0.0000}     { +Z +Y -X };   # Fiber-Col
#      15                 dispBeamColumn     {+0.0000 +0.0000 +1.0000}     {+0.0000 +1.0000 -0.0000}     {-1.0000 +0.0000 +0.0000}     { +Z +Y -X };   # Fiber-Col
#      16                 dispBeamColumn     {+0.0000 +0.0000 +1.0000}     {+0.0000 +1.0000 -0.0000}     {-1.0000 +0.0000 +0.0000}     { +Z +Y -X };   # Fiber-Col
#      17                 dispBeamColumn     {+0.0000 +0.0000 +1.0000}     {+0.0000 +1.0000 -0.0000}     {-1.0000 +0.0000 +0.0000}     { +Z +Y -X };   # Fiber-Col
#      18                 dispBeamColumn     {+0.0000 +0.0000 +1.0000}     {+0.0000 +1.0000 -0.0000}     {-1.0000 +0.0000 +0.0000}     { +Z +Y -X };   # Fiber-Col
#      19                 dispBeamColumn     {+0.0000 +0.0000 +1.0000}     {+0.0000 +1.0000 -0.0000}     {-1.0000 +0.0000 +0.0000}     { +Z +Y -X };   # Fiber-Col
#      20                 dispBeamColumn     {+0.0000 +0.0000 +1.0000}     {+0.0000 +1.0000 -0.0000}     {-1.0000 +0.0000 +0.0000}     { +Z +Y -X };   # Fiber-Col
# ... 10 like lines cut
#      31                 dispBeamColumn     {+1.0000 +0.0000 +0.0000}     {+0.0000 +1.0000 +0.0000}     {+0.0000 +0.0000 +1.0000}     { +X +Y +Z };   # Fiber-Beam-Joint
#      32                 dispBeamColumn     {+1.0000 +0.0000 +0.0000}     {+0.0000 +1.0000 +0.0000}     {+0.0000 +0.0000 +1.0000}     { +X +Y +Z };   # Fiber-Beam-Mid
#      33                 dispBeamColumn     {+1.0000 +0.0000 +0.0000}     {+0.0000 +1.0000 +0.0000}     {+0.0000 +0.0000 +1.0000}     { +X +Y +Z };   # Fiber-Beam-Mid
#      34                 dispBeamColumn     {+1.0000 +0.0000 +0.0000}     {+0.0000 +1.0000 +0.0000}     {+0.0000 +0.0000 +1.0000}     { +X +Y +Z };   # Fiber-Beam-Mid
#      35                 dispBeamColumn     {+1.0000 +0.0000 +0.0000}     {+0.0000 +1.0000 +0.0000}     {+0.0000 +0.0000 +1.0000}     { +X +Y +Z };   # Fiber-Beam-Mid
#      36                 dispBeamColumn     {+1.0000 +0.0000 +0.0000}     {+0.0000 +1.0000 +0.0000}     {+0.0000 +0.0000 +1.0000}     { +X +Y +Z };   # Fiber-Beam-Mid
#      37                 dispBeamColumn     {+1.0000 +0.0000 +0.0000}     {+0.0000 +1.0000 +0.0000}     {+0.0000 +0.0000 +1.0000}     { +X +Y +Z };   # Fiber-Beam-Mid
#      38                 dispBeamColumn     {+1.0000 +0.0000 +0.0000}     {+0.0000 +1.0000 +0.0000}     {+0.0000 +0.0000 +1.0000}     { +X +Y +Z };   # Fiber-Beam-Mid
#      39                 dispBeamColumn     {+1.0000 +0.0000 +0.0000}     {+0.0000 +1.0000 +0.0000}     {+0.0000 +0.0000 +1.0000}     { +X +Y +Z };   # Fiber-Beam-Mid
#      40                 dispBeamColumn     {+1.0000 +0.0000 +0.0000}     {+0.0000 +1.0000 +0.0000}     {+0.0000 +0.0000 +1.0000}     { +X +Y +Z };   # Fiber-Beam-Joint
#      41                 dispBeamColumn     {+1.0000 +0.0000 +0.0000}     {+0.0000 +1.0000 +0.0000}     {+0.0000 +0.0000 +1.0000}     { +X +Y +Z };   # Fiber-Beam-Joint
#      42                 dispBeamColumn     {+1.0000 +0.0000 +0.0000}     {+0.0000 +1.0000 +0.0000}     {+0.0000 +0.0000 +1.0000}     { +X +Y +Z };   # Fiber-Beam-Mid
#      43                 dispBeamColumn     {+1.0000 +0.0000 +0.0000}     {+0.0000 +1.0000 +0.0000}     {+0.0000 +0.0000 +1.0000}     { +X +Y +Z };   # Fiber-Beam-Mid
#      44                 dispBeamColumn     {+1.0000 +0.0000 +0.0000}     {+0.0000 +1.0000 +0.0000}     {+0.0000 +0.0000 +1.0000}     { +X +Y +Z };   # Fiber-Beam-Mid
#      45                 dispBeamColumn     {+1.0000 +0.0000 +0.0000}     {+0.0000 +1.0000 +0.0000}     {+0.0000 +0.0000 +1.0000}     { +X +Y +Z };   # Fiber-Beam-Mid
#      46                 dispBeamColumn     {+1.0000 +0.0000 +0.0000}     {+0.0000 +1.0000 +0.0000}     {+0.0000 +0.0000 +1.0000}     { +X +Y +Z };   # Fiber-Beam-Mid
#      47                 dispBeamColumn     {+1.0000 +0.0000 +0.0000}     {+0.0000 +1.0000 +0.0000}     {+0.0000 +0.0000 +1.0000}     { +X +Y +Z };   # Fiber-Beam-Mid
#      48                 dispBeamColumn     {+1.0000 +0.0000 +0.0000}     {+0.0000 +1.0000 +0.0000}     {+0.0000 +0.0000 +1.0000}     { +X +Y +Z };   # Fiber-Beam-Mid
#      49                 dispBeamColumn     {+1.0000 +0.0000 +0.0000}     {+0.0000 +1.0000 +0.0000}     {+0.0000 +0.0000 +1.0000}     { +X +Y +Z };   # Fiber-Beam-Mid
#      50                 dispBeamColumn     {+1.0000 +0.0000 +0.0000}     {+0.0000 +1.0000 +0.0000}     {+0.0000 +0.0000 +1.0000}     { +X +Y +Z };   # Fiber-Beam-Joint
#      51                 dispBeamColumn     {+1.0000 +0.0000 +0.0000}     {+0.0000 +1.0000 +0.0000}     {+0.0000 +0.0000 +1.0000}     { +X +Y +Z };   # Fiber-Beam-Joint
#      52                 dispBeamColumn     {+1.0000 +0.0000 +0.0000}     {+0.0000 +1.0000 +0.0000}     {+0.0000 +0.0000 +1.0000}     { +X +Y +Z };   # Fiber-Beam-Mid
#      53                 dispBeamColumn     {+1.0000 +0.0000 +0.0000}     {+0.0000 +1.0000 +0.0000}     {+0.0000 +0.0000 +1.0000}     { +X +Y +Z };   # Fiber-Beam-Mid
#      54                 dispBeamColumn     {+1.0000 +0.0000 +0.0000}     {+0.0000 +1.0000 +0.0000}     {+0.0000 +0.0000 +1.0000}     { +X +Y +Z };   # Fiber-Beam-Mid
#      55                 dispBeamColumn     {+1.0000 +0.0000 +0.0000}     {+0.0000 +1.0000 +0.0000}     {+0.0000 +0.0000 +1.0000}     { +X +Y +Z };   # Fiber-Beam-Mid
#      56                 dispBeamColumn     {+1.0000 +0.0000 +0.0000}     {+0.0000 +1.0000 +0.0000}     {+0.0000 +0.0000 +1.0000}     { +X +Y +Z };   # Fiber-Beam-Mid
#      57                 dispBeamColumn     {+1.0000 +0.0000 +0.0000}     {+0.0000 +1.0000 +0.0000}     {+0.0000 +0.0000 +1.0000}     { +X +Y +Z };   # Fiber-Beam-Mid
#      58                 dispBeamColumn     {+1.0000 +0.0000 +0.0000}     {+0.0000 +1.0000 +0.0000}     {+0.0000 +0.0000 +1.0000}     { +X +Y +Z };   # Fiber-Beam-Mid
#      59                 dispBeamColumn     {+1.0000 +0.0000 +0.0000}     {+0.0000 +1.0000 +0.0000}     {+0.0000 +0.0000 +1.0000}     { +X +Y +Z };   # Fiber-Beam-Mid
#      60                 dispBeamColumn     {+1.0000 +0.0000 +0.0000}     {+0.0000 +1.0000 +0.0000}     {+0.0000 +0.0000 +1.0000}     { +X +Y +Z };   # Fiber-Beam-Joint
#      61                 dispBeamColumn     {+0.0000 +0.0000 +1.0000}     {+0.0000 +1.0000 -0.0000}     {-1.0000 +0.0000 +0.0000}     { +Z +Y -X };   # Fiber-Col
#      62                 dispBeamColumn     {+0.0000 +0.0000 +1.0000}     {+0.0000 +1.0000 -0.0000}     {-1.0000 +0.0000 +0.0000}     { +Z +Y -X };   # Fiber-Col
#      63                 dispBeamColumn     {+0.0000 +0.0000 +1.0000}     {+0.0000 +1.0000 -0.0000}     {-1.0000 +0.0000 +0.0000}     { +Z +Y -X };   # Fiber-Col
#      64                 dispBeamColumn     {+0.0000 +0.0000 +1.0000}     {+0.0000 +1.0000 -0.0000}     {-1.0000 +0.0000 +0.0000}     { +Z +Y -X };   # Fiber-Col
#      65                 dispBeamColumn     {+0.0000 +0.0000 +1.0000}     {+0.0000 +1.0000 -0.0000}     {-1.0000 +0.0000 +0.0000}     { +Z +Y -X };   # Fiber-Col
#      66                 dispBeamColumn     {+0.0000 +0.0000 +1.0000}     {+0.0000 +1.0000 -0.0000}     {-1.0000 +0.0000 +0.0000}     { +Z +Y -X };   # Fiber-Col
#      67                 dispBeamColumn     {+0.0000 +0.0000 +1.0000}     {+0.0000 +1.0000 -0.0000}     {-1.0000 +0.0000 +0.0000}     { +Z +Y -X };   # Fiber-Col
#      68                 dispBeamColumn     {+0.0000 +0.0000 +1.0000}     {+0.0000 +1.0000 -0.0000}     {-1.0000 +0.0000 +0.0000}     { +Z +Y -X };   # Fiber-Col
#      69                 dispBeamColumn     {+0.0000 +0.0000 +1.0000}     {+0.0000 +1.0000 -0.0000}     {-1.0000 +0.0000 +0.0000}     { +Z +Y -X };   # Fiber-Col
#      70                 dispBeamColumn     {+0.0000 +0.0000 +1.0000}     {+0.0000 +1.0000 -0.0000}     {-1.0000 +0.0000 +0.0000}     { +Z +Y -X };   # Fiber-Col
#      71                 dispBeamColumn     {+0.0000 +0.0000 +1.0000}     {+0.0000 +1.0000 -0.0000}     {-1.0000 +0.0000 +0.0000}     { +Z +Y -X };   # Fiber-Col
#      72                 dispBeamColumn     {+0.0000 +0.0000 +1.0000}     {+0.0000 +1.0000 -0.0000}     {-1.0000 +0.0000 +0.0000}     { +Z +Y -X };   # Fiber-Col
#      73                 dispBeamColumn     {+0.0000 +0.0000 +1.0000}     {+0.0000 +1.0000 -0.0000}     {-1.0000 +0.0000 +0.0000}     { +Z +Y -X };   # Fiber-Col
#      74                 dispBeamColumn     {+0.0000 +0.0000 +1.0000}     {+0.0000 +1.0000 -0.0000}     {-1.0000 +0.0000 +0.0000}     { +Z +Y -X };   # Fiber-Col
#      75                 dispBeamColumn     {+0.0000 +0.0000 +1.0000}     {+0.0000 +1.0000 -0.0000}     {-1.0000 +0.0000 +0.0000}     { +Z +Y -X };   # Fiber-Col
#      76                 dispBeamColumn     {+0.0000 +0.0000 +1.0000}     {+0.0000 +1.0000 -0.0000}     {-1.0000 +0.0000 +0.0000}     { +Z +Y -X };   # Fiber-Col
#      77                 dispBeamColumn     {+0.0000 +0.0000 +1.0000}     {+0.0000 +1.0000 -0.0000}     {-1.0000 +0.0000 +0.0000}     { +Z +Y -X };   # Fiber-Col
#      78                 dispBeamColumn     {+0.0000 +0.0000 +1.0000}     {+0.0000 +1.0000 -0.0000}     {-1.0000 +0.0000 +0.0000}     { +Z +Y -X };   # Fiber-Col
#      79                 dispBeamColumn     {+0.0000 +0.0000 +1.0000}     {+0.0000 +1.0000 -0.0000}     {-1.0000 +0.0000 +0.0000}     { +Z +Y -X };   # Fiber-Col
#      80                 dispBeamColumn     {+0.0000 +0.0000 +1.0000}     {+0.0000 +1.0000 -0.0000}     {-1.0000 +0.0000 +0.0000}     { +Z +Y -X };   # Fiber-Col
#      81                 dispBeamColumn     {+0.0000 +0.0000 -1.0000}     {-0.0000 -1.0000 -0.0000}     {-1.0000 +0.0000 +0.0000}     { -Z -Y -X };   # Fiber-Col
#      82                 dispBeamColumn     {+0.0000 +0.0000 -1.0000}     {-0.0000 -1.0000 -0.0000}     {-1.0000 +0.0000 +0.0000}     { -Z -Y -X };   # Fiber-Col
#      83                 dispBeamColumn     {+0.0000 +0.0000 -1.0000}     {-0.0000 -1.0000 -0.0000}     {-1.0000 +0.0000 +0.0000}     { -Z -Y -X };   # Fiber-Col
#      84                 dispBeamColumn     {+0.0000 +0.0000 -1.0000}     {-0.0000 -1.0000 -0.0000}     {-1.0000 +0.0000 +0.0000}     { -Z -Y -X };   # Fiber-Col
#      85                 dispBeamColumn     {+0.0000 +0.0000 -1.0000}     {-0.0000 -1.0000 -0.0000}     {-1.0000 +0.0000 +0.0000}     { -Z -Y -X };   # Fiber-Col
#      86                 dispBeamColumn     {+0.0000 +0.0000 -1.0000}     {-0.0000 -1.0000 -0.0000}     {-1.0000 +0.0000 +0.0000}     { -Z -Y -X };   # Fiber-Col
#      87                 dispBeamColumn     {+0.0000 +0.0000 -1.0000}     {-0.0000 -1.0000 -0.0000}     {-1.0000 +0.0000 +0.0000}     { -Z -Y -X };   # Fiber-Col
#      88                 dispBeamColumn     {+0.0000 +0.0000 -1.0000}     {-0.0000 -1.0000 -0.0000}     {-1.0000 +0.0000 +0.0000}     { -Z -Y -X };   # Fiber-Col
#      89                 dispBeamColumn     {+0.0000 +0.0000 -1.0000}     {-0.0000 -1.0000 -0.0000}     {-1.0000 +0.0000 +0.0000}     { -Z -Y -X };   # Fiber-Col
#      90                 dispBeamColumn     {+0.0000 +0.0000 -1.0000}     {-0.0000 -1.0000 -0.0000}     {-1.0000 +0.0000 +0.0000}     { -Z -Y -X };   # Fiber-Col
#      91                 dispBeamColumn     {+0.0000 +0.0000 -1.0000}     {-0.0000 -1.0000 -0.0000}     {-1.0000 +0.0000 +0.0000}     { -Z -Y -X };   # Fiber-Col
#      92                 dispBeamColumn     {+0.0000 +0.0000 -1.0000}     {-0.0000 -1.0000 -0.0000}     {-1.0000 +0.0000 +0.0000}     { -Z -Y -X };   # Fiber-Col
#      93                 dispBeamColumn     {+0.0000 +0.0000 -1.0000}     {-0.0000 -1.0000 -0.0000}     {-1.0000 +0.0000 +0.0000}     { -Z -Y -X };   # Fiber-Col
#      94                 dispBeamColumn     {+0.0000 +0.0000 -1.0000}     {-0.0000 -1.0000 -0.0000}     {-1.0000 +0.0000 +0.0000}     { -Z -Y -X };   # Fiber-Col
#      95                 dispBeamColumn     {+0.0000 +0.0000 -1.0000}     {-0.0000 -1.0000 -0.0000}     {-1.0000 +0.0000 +0.0000}     { -Z -Y -X };   # Fiber-Col
#      96                 dispBeamColumn     {+0.0000 +0.0000 -1.0000}     {-0.0000 -1.0000 -0.0000}     {-1.0000 +0.0000 +0.0000}     { -Z -Y -X };   # Fiber-Col
#      97                 dispBeamColumn     {+0.0000 +0.0000 -1.0000}     {-0.0000 -1.0000 -0.0000}     {-1.0000 +0.0000 +0.0000}     { -Z -Y -X };   # Fiber-Col
#      98                 dispBeamColumn     {+0.0000 +0.0000 -1.0000}     {-0.0000 -1.0000 -0.0000}     {-1.0000 +0.0000 +0.0000}     { -Z -Y -X };   # Fiber-Col
#      99                 dispBeamColumn     {+0.0000 +0.0000 -1.0000}     {-0.0000 -1.0000 -0.0000}     {-1.0000 +0.0000 +0.0000}     { -Z -Y -X };   # Fiber-Col
#     100                 dispBeamColumn     {+0.0000 +0.0000 -1.0000}     {-0.0000 -1.0000 -0.0000}     {-1.0000 +0.0000 +0.0000}     { -Z -Y -X };   # Fiber-Col
# ... 10 like lines cut
#     111                 dispBeamColumn     {+0.0000 +0.0000 +1.0000}     {+0.0000 +1.0000 -0.0000}     {-1.0000 +0.0000 +0.0000}     { +Z +Y -X };   # Fiber-Col
#     112                 dispBeamColumn     {+0.0000 +0.0000 +1.0000}     {+0.0000 +1.0000 -0.0000}     {-1.0000 +0.0000 +0.0000}     { +Z +Y -X };   # Fiber-Col
#     113                 dispBeamColumn     {+0.0000 +0.0000 +1.0000}     {+0.0000 +1.0000 -0.0000}     {-1.0000 +0.0000 +0.0000}     { +Z +Y -X };   # Fiber-Col
#     114                 dispBeamColumn     {+0.0000 +0.0000 +1.0000}     {+0.0000 +1.0000 -0.0000}     {-1.0000 +0.0000 +0.0000}     { +Z +Y -X };   # Fiber-Col
#     115                 dispBeamColumn     {+0.0000 +0.0000 +1.0000}     {+0.0000 +1.0000 -0.0000}     {-1.0000 +0.0000 +0.0000}     { +Z +Y -X };   # Fiber-Col
#     116                 dispBeamColumn     {+0.0000 +0.0000 +1.0000}     {+0.0000 +1.0000 -0.0000}     {-1.0000 +0.0000 +0.0000}     { +Z +Y -X };   # Fiber-Col
#     117                 dispBeamColumn     {+0.0000 +0.0000 +1.0000}     {+0.0000 +1.0000 -0.0000}     {-1.0000 +0.0000 +0.0000}     { +Z +Y -X };   # Fiber-Col
#     118                 dispBeamColumn     {+0.0000 +0.0000 +1.0000}     {+0.0000 +1.0000 -0.0000}     {-1.0000 +0.0000 +0.0000}     { +Z +Y -X };   # Fiber-Col
#     119                 dispBeamColumn     {+0.0000 +0.0000 +1.0000}     {+0.0000 +1.0000 -0.0000}     {-1.0000 +0.0000 +0.0000}     { +Z +Y -X };   # Fiber-Col
#     120                 dispBeamColumn     {+0.0000 +0.0000 +1.0000}     {+0.0000 +1.0000 -0.0000}     {-1.0000 +0.0000 +0.0000}     { +Z +Y -X };   # Fiber-Col
#     121                 dispBeamColumn     {+0.0000 +0.0000 +1.0000}     {+0.0000 +1.0000 -0.0000}     {-1.0000 +0.0000 +0.0000}     { +Z +Y -X };   # Fiber-Col
#     122                 dispBeamColumn     {+0.0000 +0.0000 +1.0000}     {+0.0000 +1.0000 -0.0000}     {-1.0000 +0.0000 +0.0000}     { +Z +Y -X };   # Fiber-Col
#     123                 dispBeamColumn     {+0.0000 +0.0000 +1.0000}     {+0.0000 +1.0000 -0.0000}     {-1.0000 +0.0000 +0.0000}     { +Z +Y -X };   # Fiber-Col
#     124                 dispBeamColumn     {+0.0000 +0.0000 +1.0000}     {+0.0000 +1.0000 -0.0000}     {-1.0000 +0.0000 +0.0000}     { +Z +Y -X };   # Fiber-Col
#     125                 dispBeamColumn     {+0.0000 +0.0000 +1.0000}     {+0.0000 +1.0000 -0.0000}     {-1.0000 +0.0000 +0.0000}     { +Z +Y -X };   # Fiber-Col
#     126                 dispBeamColumn     {+0.0000 +0.0000 +1.0000}     {+0.0000 +1.0000 -0.0000}     {-1.0000 +0.0000 +0.0000}     { +Z +Y -X };   # Fiber-Col
#     127                 dispBeamColumn     {+0.0000 +0.0000 +1.0000}     {+0.0000 +1.0000 -0.0000}     {-1.0000 +0.0000 +0.0000}     { +Z +Y -X };   # Fiber-Col
#     128                 dispBeamColumn     {+0.0000 +0.0000 +1.0000}     {+0.0000 +1.0000 -0.0000}     {-1.0000 +0.0000 +0.0000}     { +Z +Y -X };   # Fiber-Col
#     129                 dispBeamColumn     {+0.0000 +0.0000 +1.0000}     {+0.0000 +1.0000 -0.0000}     {-1.0000 +0.0000 +0.0000}     { +Z +Y -X };   # Fiber-Col
#     130                 dispBeamColumn     {+0.0000 +0.0000 +1.0000}     {+0.0000 +1.0000 -0.0000}     {-1.0000 +0.0000 +0.0000}     { +Z +Y -X };   # Fiber-Col
# ... 10 like lines cut
#     141                 dispBeamColumn     {+1.0000 +0.0000 +0.0000}     {+0.0000 +1.0000 +0.0000}     {+0.0000 +0.0000 +1.0000}     { +X +Y +Z };   # Fiber-Beam-Joint
#     142                 dispBeamColumn     {+1.0000 +0.0000 +0.0000}     {+0.0000 +1.0000 +0.0000}     {+0.0000 +0.0000 +1.0000}     { +X +Y +Z };   # Fiber-Beam-Mid
#     143                 dispBeamColumn     {+1.0000 +0.0000 +0.0000}     {+0.0000 +1.0000 +0.0000}     {+0.0000 +0.0000 +1.0000}     { +X +Y +Z };   # Fiber-Beam-Mid
#     144                 dispBeamColumn     {+1.0000 +0.0000 +0.0000}     {+0.0000 +1.0000 +0.0000}     {+0.0000 +0.0000 +1.0000}     { +X +Y +Z };   # Fiber-Beam-Mid
#     145                 dispBeamColumn     {+1.0000 +0.0000 +0.0000}     {+0.0000 +1.0000 +0.0000}     {+0.0000 +0.0000 +1.0000}     { +X +Y +Z };   # Fiber-Beam-Mid
#     146                 dispBeamColumn     {+1.0000 +0.0000 +0.0000}     {+0.0000 +1.0000 +0.0000}     {+0.0000 +0.0000 +1.0000}     { +X +Y +Z };   # Fiber-Beam-Mid
#     147                 dispBeamColumn     {+1.0000 +0.0000 +0.0000}     {+0.0000 +1.0000 +0.0000}     {+0.0000 +0.0000 +1.0000}     { +X +Y +Z };   # Fiber-Beam-Mid
#     148                 dispBeamColumn     {+1.0000 +0.0000 +0.0000}     {+0.0000 +1.0000 +0.0000}     {+0.0000 +0.0000 +1.0000}     { +X +Y +Z };   # Fiber-Beam-Mid
#     149                 dispBeamColumn     {+1.0000 +0.0000 +0.0000}     {+0.0000 +1.0000 +0.0000}     {+0.0000 +0.0000 +1.0000}     { +X +Y +Z };   # Fiber-Beam-Mid
#     150                 dispBeamColumn     {+1.0000 +0.0000 +0.0000}     {+0.0000 +1.0000 +0.0000}     {+0.0000 +0.0000 +1.0000}     { +X +Y +Z };   # Fiber-Beam-Joint
#     151                 dispBeamColumn     {+1.0000 +0.0000 +0.0000}     {+0.0000 +1.0000 +0.0000}     {+0.0000 +0.0000 +1.0000}     { +X +Y +Z };   # Fiber-Beam-Joint
#     152                 dispBeamColumn     {+1.0000 +0.0000 +0.0000}     {+0.0000 +1.0000 +0.0000}     {+0.0000 +0.0000 +1.0000}     { +X +Y +Z };   # Fiber-Beam-Mid
#     153                 dispBeamColumn     {+1.0000 +0.0000 +0.0000}     {+0.0000 +1.0000 +0.0000}     {+0.0000 +0.0000 +1.0000}     { +X +Y +Z };   # Fiber-Beam-Mid
#     154                 dispBeamColumn     {+1.0000 +0.0000 +0.0000}     {+0.0000 +1.0000 +0.0000}     {+0.0000 +0.0000 +1.0000}     { +X +Y +Z };   # Fiber-Beam-Mid
#     155                 dispBeamColumn     {+1.0000 +0.0000 +0.0000}     {+0.0000 +1.0000 +0.0000}     {+0.0000 +0.0000 +1.0000}     { +X +Y +Z };   # Fiber-Beam-Mid
#     156                 dispBeamColumn     {+1.0000 +0.0000 +0.0000}     {+0.0000 +1.0000 +0.0000}     {+0.0000 +0.0000 +1.0000}     { +X +Y +Z };   # Fiber-Beam-Mid
#     157                 dispBeamColumn     {+1.0000 +0.0000 +0.0000}     {+0.0000 +1.0000 +0.0000}     {+0.0000 +0.0000 +1.0000}     { +X +Y +Z };   # Fiber-Beam-Mid
#     158                 dispBeamColumn     {+1.0000 +0.0000 +0.0000}     {+0.0000 +1.0000 +0.0000}     {+0.0000 +0.0000 +1.0000}     { +X +Y +Z };   # Fiber-Beam-Mid
#     159                 dispBeamColumn     {+1.0000 +0.0000 +0.0000}     {+0.0000 +1.0000 +0.0000}     {+0.0000 +0.0000 +1.0000}     { +X +Y +Z };   # Fiber-Beam-Mid
#     160                 dispBeamColumn     {+1.0000 +0.0000 +0.0000}     {+0.0000 +1.0000 +0.0000}     {+0.0000 +0.0000 +1.0000}     { +X +Y +Z };   # Fiber-Beam-Joint
#     161                 dispBeamColumn     {+1.0000 +0.0000 +0.0000}     {+0.0000 +1.0000 +0.0000}     {+0.0000 +0.0000 +1.0000}     { +X +Y +Z };   # Fiber-Beam-Joint
#     162                 dispBeamColumn     {+1.0000 +0.0000 +0.0000}     {+0.0000 +1.0000 +0.0000}     {+0.0000 +0.0000 +1.0000}     { +X +Y +Z };   # Fiber-Beam-Mid
#     163                 dispBeamColumn     {+1.0000 +0.0000 +0.0000}     {+0.0000 +1.0000 +0.0000}     {+0.0000 +0.0000 +1.0000}     { +X +Y +Z };   # Fiber-Beam-Mid
#     164                 dispBeamColumn     {+1.0000 +0.0000 +0.0000}     {+0.0000 +1.0000 +0.0000}     {+0.0000 +0.0000 +1.0000}     { +X +Y +Z };   # Fiber-Beam-Mid
#     165                 dispBeamColumn     {+1.0000 +0.0000 +0.0000}     {+0.0000 +1.0000 +0.0000}     {+0.0000 +0.0000 +1.0000}     { +X +Y +Z };   # Fiber-Beam-Mid
#     166                 dispBeamColumn     {+1.0000 +0.0000 +0.0000}     {+0.0000 +1.0000 +0.0000}     {+0.0000 +0.0000 +1.0000}     { +X +Y +Z };   # Fiber-Beam-Mid
#     167                 dispBeamColumn     {+1.0000 +0.0000 +0.0000}     {+0.0000 +1.0000 +0.0000}     {+0.0000 +0.0000 +1.0000}     { +X +Y +Z };   # Fiber-Beam-Mid
#     168                 dispBeamColumn     {+1.0000 +0.0000 +0.0000}     {+0.0000 +1.0000 +0.0000}     {+0.0000 +0.0000 +1.0000}     { +X +Y +Z };   # Fiber-Beam-Mid
#     169                 dispBeamColumn     {+1.0000 +0.0000 +0.0000}     {+0.0000 +1.0000 +0.0000}     {+0.0000 +0.0000 +1.0000}     { +X +Y +Z };   # Fiber-Beam-Mid
#     170                 dispBeamColumn     {+1.0000 +0.0000 +0.0000}     {+0.0000 +1.0000 +0.0000}     {+0.0000 +0.0000 +1.0000}     { +X +Y +Z };   # Fiber-Beam-Joint
#     171                 dispBeamColumn     {+0.0000 +0.0000 -1.0000}     {-0.0000 -1.0000 -0.0000}     {-1.0000 +0.0000 +0.0000}     { -Z -Y -X };   # Fiber-Col
#     172                 dispBeamColumn     {+0.0000 +0.0000 -1.0000}     {-0.0000 -1.0000 -0.0000}     {-1.0000 +0.0000 +0.0000}     { -Z -Y -X };   # Fiber-Col
#     173                 dispBeamColumn     {+0.0000 +0.0000 -1.0000}     {-0.0000 -1.0000 -0.0000}     {-1.0000 +0.0000 +0.0000}     { -Z -Y -X };   # Fiber-Col
#     174                 dispBeamColumn     {+0.0000 +0.0000 -1.0000}     {-0.0000 -1.0000 -0.0000}     {-1.0000 +0.0000 +0.0000}     { -Z -Y -X };   # Fiber-Col
#     175                 dispBeamColumn     {+0.0000 +0.0000 -1.0000}     {-0.0000 -1.0000 -0.0000}     {-1.0000 +0.0000 +0.0000}     { -Z -Y -X };   # Fiber-Col
#     176                 dispBeamColumn     {+0.0000 +0.0000 -1.0000}     {-0.0000 -1.0000 -0.0000}     {-1.0000 +0.0000 +0.0000}     { -Z -Y -X };   # Fiber-Col
#     177                 dispBeamColumn     {+0.0000 +0.0000 -1.0000}     {-0.0000 -1.0000 -0.0000}     {-1.0000 +0.0000 +0.0000}     { -Z -Y -X };   # Fiber-Col
#     178                 dispBeamColumn     {+0.0000 +0.0000 -1.0000}     {-0.0000 -1.0000 -0.0000}     {-1.0000 +0.0000 +0.0000}     { -Z -Y -X };   # Fiber-Col
#     179                 dispBeamColumn     {+0.0000 +0.0000 -1.0000}     {-0.0000 -1.0000 -0.0000}     {-1.0000 +0.0000 +0.0000}     { -Z -Y -X };   # Fiber-Col
#     180                 dispBeamColumn     {+0.0000 +0.0000 -1.0000}     {-0.0000 -1.0000 -0.0000}     {-1.0000 +0.0000 +0.0000}     { -Z -Y -X };   # Fiber-Col
